<additional>
    <edgeData id="stats_modified" freq="60" file="lane_output_modified.xml" withMaxJam="true"/>
</additional>